Version 4
SHEET 1 2332 696
WIRE 2016 -272 2016 -304
WIRE 2016 -272 1968 -272
WIRE 2080 -272 2016 -272
WIRE -656 -240 -656 -304
WIRE -560 -240 -560 -304
WIRE -464 -240 -464 -304
WIRE -320 -240 -320 -304
WIRE 1888 -224 1888 -256
WIRE 1968 -224 1968 -272
WIRE 2080 -224 2080 -272
WIRE 1696 -176 1696 -256
WIRE 1440 -128 1360 -128
WIRE 1568 -128 1504 -128
WIRE 1648 -128 1568 -128
WIRE -656 -112 -656 -160
WIRE -560 -112 -560 -160
WIRE -560 -112 -656 -112
WIRE -464 -112 -464 -160
WIRE -464 -112 -560 -112
WIRE -320 -112 -320 -160
WIRE -320 -112 -464 -112
WIRE 208 -112 208 -192
WIRE 208 -112 112 -112
WIRE 304 -112 208 -112
WIRE 704 -112 304 -112
WIRE 1568 -96 1568 -128
WIRE 1888 -96 1888 -144
WIRE 1968 -96 1968 -144
WIRE 2000 -96 1968 -96
WIRE 2080 -96 2080 -144
WIRE 2080 -96 2000 -96
WIRE 112 -80 112 -112
WIRE -464 -64 -464 -112
WIRE 704 -64 704 -112
WIRE 304 -48 304 -112
WIRE 1664 -48 1664 -80
WIRE 1728 -48 1664 -48
WIRE 1840 -48 1808 -48
WIRE 2000 -48 2000 -96
WIRE 1664 -32 1664 -48
WIRE 112 32 112 0
WIRE 112 32 32 32
WIRE 304 80 304 32
WIRE 1568 80 1568 -16
WIRE 1664 80 1664 48
WIRE 1664 80 1568 80
WIRE 1856 80 1856 0
WIRE 112 96 112 32
WIRE 208 128 208 64
WIRE 256 128 208 128
WIRE -16 144 -128 144
WIRE 64 144 -16 144
WIRE 432 144 352 144
WIRE 480 144 432 144
WIRE 704 144 704 16
WIRE 704 144 544 144
WIRE 736 144 704 144
WIRE 848 144 800 144
WIRE 992 144 928 144
WIRE 1664 144 1664 80
WIRE -16 176 -16 144
WIRE 432 192 432 144
WIRE 80 256 80 192
WIRE 208 256 80 256
WIRE 336 256 336 192
WIRE 336 256 208 256
WIRE 432 288 432 272
WIRE 432 288 400 288
WIRE -16 304 -16 256
WIRE 208 320 208 256
WIRE 432 320 432 288
WIRE 1664 320 1664 224
WIRE 704 352 704 144
WIRE 560 400 480 400
WIRE 656 400 560 400
WIRE 688 400 656 400
WIRE 320 448 320 400
WIRE 208 480 208 400
WIRE 672 480 672 448
WIRE 800 480 672 480
WIRE 880 480 800 480
WIRE 976 480 960 480
WIRE 1008 480 976 480
WIRE 400 496 400 400
WIRE 480 496 480 400
WIRE 560 496 560 400
WIRE 672 496 672 480
WIRE 800 560 800 480
WIRE 816 560 800 560
WIRE 976 560 976 480
WIRE 976 560 880 560
WIRE 400 608 400 560
WIRE 464 608 400 608
WIRE 480 608 480 560
WIRE 480 608 464 608
WIRE 560 608 560 576
WIRE 560 608 480 608
WIRE 672 608 672 576
WIRE 672 608 560 608
WIRE 464 656 464 608
FLAG 208 -192 HT+400
IOPIN 208 -192 In
FLAG 208 64 HT+150
IOPIN 208 64 In
FLAG 208 480 HT-200
IOPIN 208 480 Out
FLAG 432 320 0
FLAG -128 144 input
IOPIN -128 144 BiDir
FLAG -16 304 0
FLAG 320 448 input
IOPIN 320 448 BiDir
FLAG 464 656 0
FLAG -464 -64 0
FLAG -656 -304 HT+400
IOPIN -656 -304 Out
FLAG -560 -304 HT+150
IOPIN -560 -304 Out
FLAG -464 -304 HT-200
IOPIN -464 -304 In
FLAG -320 -304 input
IOPIN -320 -304 BiDir
FLAG 32 32 sub
IOPIN 32 32 BiDir
FLAG 1008 480 output
IOPIN 1008 480 BiDir
FLAG 1360 -128 sub
IOPIN 1360 -128 BiDir
FLAG 1696 -256 HT+150
IOPIN 1696 -256 In
FLAG 1856 80 0
FLAG 2016 -304 0
FLAG 2000 -48 output
IOPIN 2000 -48 BiDir
FLAG 992 144 0
FLAG 1888 -256 HT+400
IOPIN 1888 -256 In
FLAG 1664 320 HT-200
IOPIN 1664 320 Out
SYMBOL valves\\triode 112 144 R0
SYMATTR InstName U1
SYMATTR Value 6F12PT
SYMBOL valves\\tetrode_pentode 304 128 M0
SYMATTR InstName U2
SYMATTR Value 6F12PP
SYMBOL res 288 -64 R0
SYMATTR InstName R1
SYMATTR Value 13.5k
SYMBOL res 128 -96 M0
SYMATTR InstName R2
SYMATTR Value 20k
SYMBOL res 416 176 R0
SYMATTR InstName R3
SYMATTR Value 470k
SYMBOL cap 480 160 R270
WINDOW 0 32 32 VTop 2
WINDOW 3 0 32 VBottom 2
SYMATTR InstName C1
SYMATTR Value 150n
SYMBOL res 0 160 M0
SYMATTR InstName R4
SYMATTR Value 10k
SYMBOL valves\\triode 704 400 R0
SYMATTR InstName U3
SYMATTR Value 6N3P-E
SYMBOL res 688 -80 R0
SYMATTR InstName R5
SYMATTR Value 33.3k
SYMBOL cap 384 496 R0
SYMATTR InstName C3
SYMATTR Value 100p
SYMBOL cap 464 496 R0
SYMATTR InstName C4
SYMATTR Value 331p
SYMBOL res 544 480 R0
SYMATTR InstName R7
SYMATTR Value 470k
SYMBOL res 496 384 R90
WINDOW 0 0 56 VBottom 2
WINDOW 3 32 56 VTop 2
SYMATTR InstName R8
SYMATTR Value 1k
SYMBOL res 416 384 R90
WINDOW 0 0 56 VBottom 2
WINDOW 3 32 56 VTop 2
SYMATTR InstName R9
SYMATTR Value 1k
SYMBOL res 656 480 R0
SYMATTR InstName R10
SYMATTR Value 380
SYMBOL voltage -656 -256 R0
WINDOW 123 0 0 Left 2
WINDOW 39 0 0 Left 2
SYMATTR InstName V1
SYMATTR Value 400
SYMBOL voltage -560 -256 R0
WINDOW 123 0 0 Left 2
WINDOW 39 0 0 Left 2
SYMATTR InstName V2
SYMATTR Value 150
SYMBOL voltage -464 -144 M180
WINDOW 0 24 96 Left 2
WINDOW 3 24 16 Left 2
WINDOW 123 0 0 Left 2
WINDOW 39 0 0 Left 2
SYMATTR InstName V3
SYMATTR Value 200
SYMBOL voltage -320 -256 R0
WINDOW 123 24 44 Left 2
WINDOW 39 0 0 Left 2
SYMATTR Value2 AC 1 1
SYMATTR InstName V4
SYMATTR Value SINE(0 1.4 1k)
SYMBOL res 864 496 R270
WINDOW 0 32 56 VTop 2
WINDOW 3 0 56 VBottom 2
SYMATTR InstName R11
SYMATTR Value 2.2k
SYMBOL cap 880 544 R90
WINDOW 0 0 32 VBottom 2
WINDOW 3 32 32 VTop 2
SYMATTR InstName C5
SYMATTR Value 100p
SYMBOL cap 1440 -112 R270
WINDOW 0 32 32 VTop 2
WINDOW 3 0 32 VBottom 2
SYMATTR InstName C6
SYMATTR Value 100n
SYMBOL res 1584 -112 M0
SYMATTR InstName R12
SYMATTR Value 470k
SYMBOL res 1680 -48 M0
SYMATTR InstName R13
SYMATTR Value 1565
SYMBOL res 1648 128 R0
SYMATTR InstName R14
SYMATTR Value 82k
SYMBOL valves\\triode 1696 -128 R0
SYMATTR InstName U4
SYMATTR Value 6N9S
SYMBOL valves\\triode 1888 -48 R0
SYMATTR InstName U5
SYMATTR Value EL360
SYMBOL ind2 1872 -240 R0
WINDOW 0 -26 37 Left 2
WINDOW 3 -28 82 Left 2
SYMATTR InstName L1
SYMATTR Value 14.9
SYMATTR Type ind
SYMATTR SpiceLine Rser=103.1 Cpar=548p
SYMBOL ind2 1984 -240 M0
WINDOW 0 -27 35 Left 2
WINDOW 3 -80 65 Left 2
SYMATTR InstName L2
SYMATTR Value 0.01192
SYMATTR Type ind
SYMATTR SpiceLine Rser=0.22
SYMBOL res 2064 -240 R0
SYMATTR InstName R15
SYMATTR Value 8
SYMBOL res 1824 -64 R90
WINDOW 0 0 56 VBottom 2
WINDOW 3 32 56 VTop 2
SYMATTR InstName R16
SYMATTR Value 10k
SYMBOL res 192 304 R0
SYMATTR InstName R6
SYMATTR Value 5.5k
SYMBOL cap 800 128 R90
WINDOW 0 0 32 VBottom 2
WINDOW 3 32 32 VTop 2
SYMATTR InstName C2
SYMATTR Value 1n
SYMBOL res 944 128 R90
WINDOW 0 0 56 VBottom 2
WINDOW 3 32 56 VTop 2
SYMATTR InstName R17
SYMATTR Value 10k
TEXT 920 -32 Left 2 !.tran 5m
TEXT 1904 -296 Left 2 !K L1 L2 0.99857920274508752647
TEXT 920 8 Left 2 !.Fourrier 1000 V(output)
TEXT 920 32 Left 2 !.measure OUTPUT_POWER_RMS RMS(V(output))*I(R15)
TEXT 920 -64 Left 2 !;ac oct 1000 1 1MEG
LINE Normal 1920 -128 1920 -240
LINE Normal 1936 -128 1936 -240
