Version 4
SHEET 1 1596 740
WIRE 96 96 0 96
WIRE 144 96 96 96
WIRE 320 96 208 96
WIRE 384 96 320 96
WIRE 464 96 384 96
WIRE 608 96 544 96
WIRE 784 96 608 96
WIRE 896 96 784 96
WIRE 1200 96 992 96
WIRE 1312 96 1200 96
WIRE 784 112 784 96
WIRE 0 160 0 96
WIRE 96 160 96 96
WIRE 208 160 96 160
WIRE 304 160 272 160
WIRE 384 160 384 96
WIRE 608 160 608 96
WIRE 1200 160 1200 96
WIRE 976 176 976 144
WIRE 1312 176 1312 96
WIRE 864 192 832 192
WIRE 208 256 96 256
WIRE 320 256 320 96
WIRE 320 256 272 256
WIRE 784 304 784 288
WIRE 864 304 864 192
WIRE 864 304 784 304
WIRE 976 304 976 256
WIRE 976 304 864 304
WIRE 0 336 0 240
WIRE 96 336 96 256
WIRE 96 336 0 336
WIRE 144 336 96 336
WIRE 304 336 304 160
WIRE 304 336 208 336
WIRE 384 336 384 224
WIRE 384 336 304 336
WIRE 608 336 608 224
WIRE 608 336 384 336
WIRE 1200 336 1200 240
WIRE 1264 336 1200 336
WIRE 1312 336 1312 256
WIRE 1312 336 1264 336
WIRE 304 368 304 336
WIRE 784 368 784 304
WIRE 976 368 976 304
WIRE 784 528 784 448
WIRE 784 656 784 608
WIRE 880 656 784 656
WIRE 976 656 976 432
WIRE 976 656 880 656
WIRE 1264 656 1264 336
WIRE 1264 656 976 656
WIRE 880 720 880 656
FLAG 304 368 0
FLAG 880 720 0
SYMBOL voltage 0 144 R0
WINDOW 123 0 0 Left 2
WINDOW 39 24 124 Left 2
SYMATTR InstName V1
SYMATTR Value SINE(0 480 50)
SYMATTR SpiceLine Rser=57
SYMBOL diode 144 112 R270
WINDOW 0 32 32 VTop 2
WINDOW 3 0 32 VBottom 2
SYMATTR InstName D1
SYMATTR Value 1N4148
SYMBOL diode 272 176 M270
WINDOW 0 32 32 VTop 2
WINDOW 3 0 32 VBottom 2
SYMATTR InstName D2
SYMATTR Value 1N4148
SYMBOL diode 208 272 R270
WINDOW 0 32 32 VTop 2
WINDOW 3 0 32 VBottom 2
SYMATTR InstName D3
SYMATTR Value 1N4148
SYMBOL diode 208 352 M270
WINDOW 0 32 32 VTop 2
WINDOW 3 0 32 VBottom 2
SYMATTR InstName D4
SYMATTR Value 1N4148
SYMBOL cap 368 160 R0
SYMATTR InstName C1
SYMATTR Value 47µ
SYMBOL ind 560 112 M270
WINDOW 0 32 56 VTop 2
WINDOW 3 5 56 VBottom 2
SYMATTR InstName L1
SYMATTR Value 4
SYMATTR SpiceLine Rser=86
SYMBOL cap 592 160 R0
SYMATTR InstName C2
SYMATTR Value 100µ
SYMBOL res 1184 144 R0
SYMATTR InstName R1
SYMATTR Value 3080
SYMBOL current 1312 176 R0
WINDOW 123 0 0 Left 2
WINDOW 39 0 0 Left 2
SYMATTR InstName I1
SYMATTR Value SINE(0 80m 20 30)
SYMBOL res 768 304 M180
WINDOW 0 36 76 Left 2
WINDOW 3 36 40 Left 2
SYMATTR InstName R2
SYMATTR Value 2.55k
SYMBOL Misc\\DN3545 832 112 M0
SYMATTR InstName U1
SYMBOL res 768 352 R0
SYMATTR InstName R3
SYMATTR Value 330k
SYMBOL cap 960 368 R0
SYMATTR InstName C3
SYMATTR Value 16µ
SYMBOL Misc\\IRF820 896 144 R270
SYMATTR InstName U2
SYMBOL res 960 160 R0
SYMATTR InstName R4
SYMATTR Value 1k
SYMBOL res 768 512 R0
SYMATTR InstName R5
SYMATTR Value 200k
TEXT -34 386 Left 2 !.tran 60
